Version 4
SHEET 1 2576 680
WIRE 320 -208 320 -256
WIRE 608 -192 496 -192
WIRE 672 -192 608 -192
WIRE 816 -192 752 -192
WIRE 608 -160 608 -192
WIRE 320 -80 320 -128
WIRE 368 -80 320 -80
WIRE 480 -80 432 -80
WIRE 608 -64 608 -80
WIRE 320 -32 320 -80
WIRE 816 16 816 -192
WIRE 816 16 592 16
WIRE 816 64 816 16
WIRE 288 80 240 80
WIRE 400 96 352 96
WIRE 432 96 400 96
WIRE 544 96 512 96
WIRE -128 112 -176 112
WIRE -16 112 -48 112
WIRE 128 112 -16 112
WIRE 288 112 128 112
WIRE 816 128 816 96
WIRE -176 144 -176 112
WIRE -16 144 -16 112
WIRE 128 144 128 112
WIRE 320 160 320 128
WIRE 400 176 400 96
WIRE -176 240 -176 224
WIRE -16 240 -16 208
WIRE 128 240 128 224
WIRE 128 240 -16 240
WIRE 128 256 128 240
WIRE 176 304 176 272
WIRE 240 320 240 80
WIRE 240 320 208 320
WIRE 400 320 400 240
WIRE 400 320 240 320
WIRE 448 320 400 320
WIRE 592 320 592 112
WIRE 592 320 528 320
WIRE 144 336 96 336
WIRE 272 352 208 352
WIRE 592 352 592 320
WIRE -112 416 -192 416
WIRE -48 416 -112 416
WIRE 96 416 96 336
WIRE 96 416 32 416
WIRE -112 464 -112 416
WIRE 592 464 592 432
WIRE 96 480 96 416
WIRE 144 480 96 480
WIRE 272 480 272 352
WIRE 272 480 224 480
WIRE 320 480 272 480
WIRE 448 480 400 480
WIRE -112 560 -112 528
FLAG -176 240 0
FLAG 128 256 0
FLAG 816 128 0
FLAG 608 -64 0
FLAG 320 160 0
FLAG 320 -256 0
FLAG 496 -192 ADC1
IOPIN 496 -192 Out
FLAG 320 64 Vcc
FLAG 320 -32 Vcc
FLAG 448 480 0
FLAG -112 560 0
FLAG -192 416 ADC2
IOPIN -192 416 Out
FLAG 592 464 0
FLAG 176 272 0
FLAG 176 368 Vcc
FLAG 480 -80 0
SYMBOL res -32 96 R90
WINDOW 0 0 56 VBottom 2
WINDOW 3 32 56 VTop 2
SYMATTR InstName R1
SYMATTR Value 6.8k
SYMBOL res 144 240 R180
WINDOW 0 36 76 Left 2
WINDOW 3 36 40 Left 2
SYMATTR InstName R2
SYMATTR Value 680
SYMBOL voltage -176 128 R0
WINDOW 123 0 0 Left 0
WINDOW 39 0 0 Left 0
WINDOW 3 42 81 Left 2
SYMATTR Value 1
SYMATTR InstName V1
SYMBOL res 544 304 R90
WINDOW 0 0 56 VBottom 2
WINDOW 3 32 56 VTop 2
SYMATTR InstName R3
SYMATTR Value 10k
SYMBOL res 528 80 R90
WINDOW 0 0 56 VBottom 2
WINDOW 3 32 56 VTop 2
SYMATTR InstName R4
SYMATTR Value 100
SYMBOL nmos 544 16 R0
SYMATTR InstName M1
SYMATTR Value STD30NF06L
SYMBOL res 592 -176 R0
SYMATTR InstName R6
SYMATTR Value 10k
SYMBOL res 656 -176 R270
WINDOW 0 32 56 VTop 2
WINDOW 3 0 56 VBottom 2
SYMATTR InstName R7
SYMATTR Value 10k
SYMBOL voltage 320 -112 R180
WINDOW 123 0 0 Left 0
WINDOW 39 0 0 Left 0
SYMATTR InstName V4
SYMATTR Value 3.3
SYMBOL cap 384 176 R0
WINDOW 3 27 56 Left 2
SYMATTR Value 10n
SYMATTR InstName C1
SYMBOL cap -32 144 R0
SYMATTR InstName C2
SYMATTR Value 100n
SYMBOL cap 432 -96 R90
WINDOW 0 0 32 VBottom 2
WINDOW 3 32 32 VTop 2
SYMATTR InstName C3
SYMATTR Value 100n
SYMBOL res 240 464 R90
WINDOW 0 0 56 VBottom 2
WINDOW 3 32 56 VTop 2
SYMATTR InstName R8
SYMATTR Value 18k
SYMBOL res 416 464 R90
WINDOW 0 0 56 VBottom 2
WINDOW 3 32 56 VTop 2
SYMATTR InstName R9
SYMATTR Value 2k
SYMBOL res 48 400 R90
WINDOW 0 0 56 VBottom 2
WINDOW 3 32 56 VTop 2
SYMATTR InstName R10
SYMATTR Value 1k
SYMBOL cap -128 464 R0
SYMATTR InstName C4
SYMATTR Value 100n
SYMBOL res 576 336 R0
SYMATTR InstName R5
SYMATTR Value 0.5
SYMBOL Opamps\\UniversalOpamp 176 336 R180
SYMATTR InstName U2
SYMBOL Opamps\\UniversalOpamp3 320 96 R0
SYMATTR InstName U1
SYMBOL Solar_model 896 80 R0
SYMATTR InstName Panel_Solar
SYMATTR SpiceLine isc=isolar
TEXT 776 208 Left 2 !.dc V1 0 3.3
TEXT 784 272 Left 2 !;tran 0.2
TEXT 136 544 Left 2 ;Ganancia 10
TEXT 664 168 Left 2 !.step param isolar 50m 600m 50m
TEXT -344 -24 Left 2 ;R1=33k, R2=4.7k con tolerancia >1% y C1=100n\nActualmente en el montaje
