Version 4
SHEET 1 2576 680
WIRE 608 -320 608 -368
WIRE 304 -272 304 -320
WIRE 528 -192 496 -192
WIRE 608 -192 608 -240
WIRE 608 -192 528 -192
WIRE 672 -192 608 -192
WIRE 816 -192 752 -192
WIRE -208 -160 -272 -160
WIRE -160 -160 -208 -160
WIRE -48 -160 -96 -160
WIRE 48 -160 -48 -160
WIRE 128 -160 48 -160
WIRE 528 -160 528 -192
WIRE 608 -160 608 -192
WIRE 304 -144 304 -192
WIRE 352 -144 304 -144
WIRE 464 -144 416 -144
WIRE 48 -128 48 -160
WIRE 128 -112 128 -160
WIRE -208 -80 -208 -160
WIRE -48 -80 -48 -160
WIRE 304 -64 304 -144
WIRE 352 -64 304 -64
WIRE 464 -64 464 -144
WIRE 464 -64 416 -64
WIRE 528 -64 528 -96
WIRE 576 -64 528 -64
WIRE 608 -64 608 -80
WIRE 608 -64 576 -64
WIRE 48 -32 48 -64
WIRE 304 -32 304 -64
WIRE -208 0 -208 -16
WIRE -128 0 -208 0
WIRE -48 0 -48 -16
WIRE -48 0 -128 0
WIRE 816 16 816 -192
WIRE 816 16 592 16
WIRE 816 64 816 16
WIRE 288 80 240 80
WIRE 400 96 352 96
WIRE 432 96 400 96
WIRE 544 96 512 96
WIRE -256 112 -304 112
WIRE -128 112 -176 112
WIRE -16 112 -48 112
WIRE 128 112 128 -32
WIRE 128 112 -16 112
WIRE 288 112 128 112
WIRE 816 128 816 96
WIRE -16 144 -16 112
WIRE 128 144 128 112
WIRE 320 160 320 128
WIRE 400 176 400 96
WIRE -16 240 -16 208
WIRE 128 240 128 224
WIRE 128 240 -16 240
WIRE 128 256 128 240
WIRE 176 304 176 272
WIRE 240 320 240 80
WIRE 240 320 208 320
WIRE 400 320 400 240
WIRE 400 320 240 320
WIRE 448 320 400 320
WIRE 592 320 592 112
WIRE 592 320 528 320
WIRE 144 336 96 336
WIRE 272 352 208 352
WIRE 592 352 592 320
WIRE -144 368 -144 336
WIRE 592 464 592 432
WIRE -272 480 -368 480
WIRE -96 480 -272 480
WIRE 96 480 96 336
WIRE 96 480 -16 480
WIRE 144 480 96 480
WIRE 272 480 272 352
WIRE 272 480 224 480
WIRE 320 480 272 480
WIRE 448 480 400 480
WIRE -272 512 -272 480
WIRE -144 512 -144 448
WIRE -272 608 -272 576
WIRE -144 624 -144 592
FLAG -304 112 0
FLAG 128 256 0
FLAG 816 128 0
FLAG 576 -64 0
FLAG 320 160 0
FLAG 304 -320 0
FLAG 496 -192 ADC1
IOPIN 496 -192 Out
FLAG 320 64 Vcc
FLAG 304 -32 Vcc
FLAG 448 480 0
FLAG -368 480 ADC2
IOPIN -368 480 Out
FLAG 592 464 0
FLAG 176 272 0
FLAG 176 368 Vcc
FLAG -144 624 0
FLAG 464 -64 0
FLAG -128 0 0
FLAG -272 608 0
FLAG -416 -160 PWM
IOPIN -416 -160 In
FLAG -144 336 Vcc
FLAG 48 -32 0
FLAG 608 -368 Vcc
SYMBOL res -32 96 R90
WINDOW 0 0 56 VBottom 2
WINDOW 3 32 56 VTop 2
SYMATTR InstName R1
SYMATTR Value 39k
SYMBOL res 144 240 R180
WINDOW 0 36 76 Left 2
WINDOW 3 36 40 Left 2
SYMATTR InstName R2
SYMATTR Value 5.1k
SYMBOL voltage -160 112 R90
WINDOW 123 0 0 Left 0
WINDOW 39 0 0 Left 0
WINDOW 3 42 81 Left 2
SYMATTR Value 1
SYMATTR InstName V1
SYMBOL res 544 304 R90
WINDOW 0 0 56 VBottom 2
WINDOW 3 32 56 VTop 2
SYMATTR InstName R3
SYMATTR Value 10k
SYMBOL res 528 80 R90
WINDOW 0 0 56 VBottom 2
WINDOW 3 32 56 VTop 2
SYMATTR InstName R4
SYMATTR Value 100
SYMBOL nmos 544 16 R0
SYMATTR InstName M1
SYMATTR Value STD30NF06L
SYMBOL res 592 -176 R0
SYMATTR InstName R6
SYMATTR Value 15k
SYMBOL res 656 -176 R270
WINDOW 0 32 56 VTop 2
WINDOW 3 0 56 VBottom 2
SYMATTR InstName R7
SYMATTR Value 51k
SYMBOL voltage 304 -176 R180
WINDOW 123 0 0 Left 0
WINDOW 39 0 0 Left 0
SYMATTR InstName V4
SYMATTR Value 3.3
SYMBOL cap 384 176 R0
WINDOW 3 27 56 Left 2
SYMATTR Value 10n
SYMATTR InstName C1
SYMBOL cap -32 144 R0
SYMATTR InstName C2
SYMATTR Value 100n
SYMBOL cap 416 -160 R90
WINDOW 0 0 32 VBottom 2
WINDOW 3 32 32 VTop 2
SYMATTR InstName C3
SYMATTR Value 100n
SYMBOL res 240 464 R90
WINDOW 0 0 56 VBottom 2
WINDOW 3 32 56 VTop 2
SYMATTR InstName R8
SYMATTR Value 18k
SYMBOL res 416 464 R90
WINDOW 0 0 56 VBottom 2
WINDOW 3 32 56 VTop 2
SYMATTR InstName R9
SYMATTR Value 2k
SYMBOL res 576 336 R0
SYMATTR InstName R5
SYMATTR Value 0.5
SYMBOL Opamps\\UniversalOpamp 176 336 R180
SYMATTR InstName U2
SYMBOL Opamps\\UniversalOpamp3 320 96 R0
SYMATTR InstName U1
SYMBOL Solar_model 896 80 R0
SYMATTR InstName Panel_Solar
SYMATTR SpiceLine isc=isolar
SYMBOL res 0 464 R90
WINDOW 0 0 56 VBottom 2
WINDOW 3 32 56 VTop 2
SYMATTR InstName R10
SYMATTR Value 12k
SYMBOL res -128 464 R180
WINDOW 0 36 76 Left 2
WINDOW 3 36 40 Left 2
SYMATTR InstName R11
SYMATTR Value 47k
SYMBOL res -160 496 R0
SYMATTR InstName R12
SYMATTR Value 10k
SYMBOL cap 416 -80 R90
WINDOW 0 0 32 VBottom 2
WINDOW 3 32 32 VTop 2
SYMATTR InstName C5
SYMATTR Value 400µ
SYMBOL cap -256 576 R180
WINDOW 0 24 56 Left 2
WINDOW 3 24 8 Left 2
SYMATTR InstName C6
SYMATTR Value 10n
SYMBOL res 112 -128 R0
SYMATTR InstName R13
SYMATTR Value 820k
SYMBOL cap -64 -80 R0
SYMATTR InstName C7
SYMATTR Value 10µ
SYMBOL diode -96 -176 R90
WINDOW 0 0 32 VBottom 2
WINDOW 3 32 32 VTop 2
SYMATTR InstName D1
SYMATTR Value 1N4148
SYMBOL diode -224 -80 R0
SYMATTR InstName D2
SYMATTR Value 1N4148
SYMBOL cap -272 -176 R90
WINDOW 0 0 32 VBottom 2
WINDOW 3 32 32 VTop 2
SYMATTR InstName C8
SYMATTR Value 10µ
SYMBOL res -320 -176 R90
WINDOW 0 0 56 VBottom 2
WINDOW 3 32 56 VTop 2
SYMATTR InstName R14
SYMATTR Value 100
SYMBOL cap 32 -128 R0
SYMATTR InstName C4
SYMATTR Value 100n
SYMBOL cap 512 -160 R0
SYMATTR InstName C9
SYMATTR Value 10n
SYMBOL res 592 -336 R0
SYMATTR InstName R15
SYMATTR Value 100k
TEXT 776 208 Left 2 !.dc V1 0 3.3
TEXT 784 272 Left 2 !;tran 0.2
TEXT 136 544 Left 2 ;Ganancia 10
TEXT 664 168 Left 2 !.step param isolar 50m 700m 50m
