Version 4
SHEET 1 880 680
WIRE -96 48 -192 48
WIRE 16 48 -16 48
WIRE 112 48 80 48
WIRE 160 48 112 48
WIRE 288 48 224 48
WIRE 400 48 288 48
WIRE 544 48 400 48
WIRE -192 80 -192 48
WIRE 112 80 112 48
WIRE 288 80 288 48
WIRE 400 80 400 48
WIRE 544 80 544 48
WIRE 288 144 112 144
WIRE 400 144 288 144
WIRE 288 160 288 144
WIRE 272 256 192 256
WIRE 416 256 352 256
WIRE 544 256 544 160
WIRE 544 256 416 256
WIRE 640 256 544 256
WIRE 416 272 416 256
WIRE 544 272 544 256
WIRE 416 352 416 336
WIRE 480 352 416 352
WIRE 544 352 480 352
FLAG 192 336 0
FLAG -192 160 0
FLAG 288 160 0
FLAG 480 352 0
FLAG 640 256 V_out
IOPIN 640 256 Out
SYMBOL voltage -192 64 R0
WINDOW 123 0 0 Left 0
WINDOW 39 0 0 Left 0
SYMATTR InstName V1
SYMATTR Value PULSE(0 3.2 0 0 0 0.5m 1m)
SYMBOL voltage 192 240 R0
WINDOW 123 0 0 Left 0
WINDOW 39 0 0 Left 0
SYMATTR InstName V2
SYMATTR Value 3.2
SYMBOL res 0 32 R90
WINDOW 0 0 56 VBottom 2
WINDOW 3 32 56 VTop 2
SYMATTR InstName R1
SYMATTR Value 100
SYMBOL res 560 176 R180
WINDOW 0 36 76 Left 2
WINDOW 3 36 40 Left 2
SYMATTR InstName R2
SYMATTR Value 820k
SYMBOL cap 80 32 R90
WINDOW 0 0 32 VBottom 2
WINDOW 3 32 32 VTop 2
SYMATTR InstName C1
SYMATTR Value 10µ
SYMBOL diode 96 80 R0
SYMATTR InstName D1
SYMATTR Value 1N4148
SYMBOL diode 224 32 R90
WINDOW 0 0 32 VBottom 2
WINDOW 3 32 32 VTop 2
SYMATTR InstName D2
SYMATTR Value 1N4148
SYMBOL cap 272 80 R0
SYMATTR InstName C2
SYMATTR Value 10µ
SYMBOL res 528 256 R0
SYMATTR InstName R3
SYMATTR Value 5.1k
SYMBOL res 368 240 R90
WINDOW 0 0 56 VBottom 2
WINDOW 3 32 56 VTop 2
SYMATTR InstName R4
SYMATTR Value 39k
SYMBOL cap 400 272 R0
SYMATTR InstName C3
SYMATTR Value 100n
SYMBOL cap 384 80 R0
SYMATTR InstName C4
SYMATTR Value 100n
TEXT -128 376 Left 2 !.tran 1
